Circuit: * C:\Users\Msrt\Downloads\FisicaElectronicaTPS-master\FisicaElectronicaTPS-master\EJ2\CircuitoPunto2.asc

Direct Newton iteration for .op point succeeded.

Date: Sun Jun 23 20:08:51 2019
Total elapsed time: 0.042 seconds.

tnom = 27
temp = 27
method = trap
totiter = 7
traniter = 0
tranpoints = 0
accept = 0
rejected = 0
matrix size = 12
fillins = 0
solver = Normal
Matrix Compiler1:      36 opcodes
Matrix Compiler2: 920 bytes object code size
